LTspice 24.0.12 for Windows
Circuit: * D:\Transferred from system\LT Spice all\3i_xor_test.asc
Start Time: Sat Nov  9 20:15:22 2024
solver = Normal
Maximum thread count: 8
tnom = 27
temp = 27
method = modified trap
Direct Newton iteration for .op point succeeded.
Ignoring empty pin current: Ix(x1:gnd)
Ignoring empty pin current: Ix(x1:gnd)
Heightened Def Con from 1 to 1
Heightened Def Con from 7 to 7
Heightened Def Con from 7 to 7
Heightened Def Con from 7 to 7
Heightened Def Con from 7 to 7
Heightened Def Con from 7 to 7
Heightened Def Con from 7 to 7
Total elapsed time: 0.274 seconds.

