LTspice 24.0.12 for Windows
Circuit: * D:\Transferred from system\LT Spice all\3inand.asc
Start Time: Wed Nov  6 16:59:22 2024
solver = Normal
Maximum thread count: 8
tnom = 27
temp = 27
method = modified trap
Direct Newton iteration for .op point succeeded.
Heightened Def Con from 1 to 1
Heightened Def Con from 2 to 2
Heightened Def Con from 2 to 2
Heightened Def Con from 2 to 2
Heightened Def Con from 2 to 2
Heightened Def Con from 2 to 2
Heightened Def Con from 3 to 3
Heightened Def Con from 3 to 3
Heightened Def Con from 3 to 3
Heightened Def Con from 3 to 3
Heightened Def Con from 3 to 3
Heightened Def Con from 5 to 5
Total elapsed time: 0.173 seconds.

