LTspice 24.0.12 for Windows
Circuit: * D:\Transferred from system\LT Spice all\4i_xor_test.asc
Start Time: Sat Nov  9 21:06:44 2024
solver = Normal
Maximum thread count: 8
tnom = 27
temp = 27
method = modified trap
Direct Newton iteration failed to find .op point.  (Use ".option noopiter" to skip.)
Starting Gmin stepping
Gmin = 10
Gmin = 1.07374
Gmin = 0.115292
Gmin = 0.0123794
Gmin = 0.00132923
Gmin = 0.000142725
Gmin = 1.5325e-05
Gmin = 1.6455e-06
Gmin = 1.76685e-07
Gmin = 1.89714e-08
Gmin = 2.03704e-09
Gmin = 2.18725e-10
Gmin = 2.34854e-11
Gmin = 2.52173e-12
Gmin = 2.70769e-13
Gmin = 0
Gmin stepping succeeded in finding the operating point.

Ignoring empty pin current: Ix(x1:gnd)
Ignoring empty pin current: Ix(x1:gnd)
Heightened Def Con from 1 to 1
Heightened Def Con from 1 to 1
Heightened Def Con from 1 to 1
Heightened Def Con from 1 to 1
Heightened Def Con from 1 to 1
Heightened Def Con from 1 to 1
Heightened Def Con from 1 to 1
Heightened Def Con from 1 to 1
Heightened Def Con from 6 to 6
Heightened Def Con from 6 to 6
Heightened Def Con from 6 to 6
Heightened Def Con from 6 to 6
Heightened Def Con from 6 +to 6
Heightened Def Con from 7 to 7
Heightened Def Con from 7 to 7
Heightened Def Con from 7 to 7
Heightened Def Con from 7 to 7
Heightened Def Con from 7 +to 7
Heightened Def Con from 7 to 7
Heightened Def Con from 10 to 10
Heightened Def Con from 10 to 10
Heightened Def Con from 10 to 10
Heightened Def Con from 10 to 10
Heightened Def Con from 10 +to 10
Heightened Def Con from 11 to 11
Heightened Def Con from 11 to 11
Heightened Def Con from 11 to 11
Heightened Def Con from 11 to 11
Heightened Def Con from 11 +to 11
Heightened Def Con from 11 to 11
Heightened Def Con from 13 to 13
Heightened Def Con from 13 to 13
Heightened Def Con from 13 to 13
Heightened Def Con from 13 to 13
Heightened Def Con from 13 +to 13
Heightened Def Con from 13 to 13
Total elapsed time: 0.570 seconds.

