LTspice 24.0.12 for Windows
Circuit: * D:\Transferred from system\LT Spice all\8i_OR_Test.asc
Start Time: Sat Nov 23 19:51:22 2024
solver = Normal
Maximum thread count: 8
tnom = 27
temp = 27
method = modified trap
Direct Newton iteration for .op point succeeded.
Heightened Def Con from 64 to 64
Heightened Def Con from 126 to 126
Heightened Def Con from 254 to 254
Total elapsed time: 1.215 seconds.

