LTspice 24.0.12 for Windows
Circuit: *HW2 Q1(a)
Start Time: Mon Sep  9 18:23:11 2024
solver = Normal
Maximum thread count: 4
tnom = 27
temp = 27
method = modified trap
Direct Newton iteration for .op point succeeded.
Total elapsed time: 0.250 seconds.

