LTspice 24.0.12 for Windows
Circuit: * D:\Transferred from system\LT Spice all\ALU_ROR_Test.asc
Start Time: Thu Nov 14 16:30:43 2024
solver = Normal
Maximum thread count: 8
tnom = 27
temp = 27
method = modified trap
Direct Newton iteration for .op point succeeded.
Total elapsed time: 0.742 seconds.

