LTspice 24.0.12 for Windows
Circuit: * D:\Transferred from system\LT Spice all\ALU_NAND_TEST.asc
Start Time: Mon Nov 11 14:15:29 2024
solver = Normal
Maximum thread count: 8
tnom = 27
temp = 27
method = modified trap
Direct Newton iteration for .op point succeeded.
Ignoring empty pin current: Ix(x1:gnd)
Ignoring empty pin current: Ix(x1:gnd)
Total elapsed time: 0.678 seconds.

