LTspice 24.0.12 for Windows
Circuit: * D:\Transferred from system\LT Spice all\nor_test.asc
Start Time: Sat Nov 23 18:27:01 2024
solver = Normal
Maximum thread count: 8
tnom = 27
temp = 27
method = modified trap
Direct Newton iteration for .op point succeeded.
Total elapsed time: 0.417 seconds.

