LTspice 24.0.12 for Windows
Circuit: * D:\Transferred from system\LT Spice all\NOT_Test.asc
Start Time: Wed Nov 20 11:54:33 2024
solver = Normal
Maximum thread count: 8
tnom = 27
temp = 27
method = modified trap
Direct Newton iteration for .op point succeeded.
Total elapsed time: 0.560 seconds.

